
 ANSYS Academic Teaching Introductory              


 *------------------------------------------------------------------*
 |                                                                  |
 |   W E L C O M E   T O   T H E   A N S Y S (R)  P R O G R A M     |
 |                                                                  |
 *------------------------------------------------------------------*




 ***************************************************************
 *            ANSYS 2019 R1          LEGAL NOTICES             *
 ***************************************************************
 *                                                             *
 * Copyright 1971-2018 ANSYS, Inc.  All rights reserved.       *
 * Unauthorized use, distribution or duplication is            *
 * prohibited.                                                 *
 *                                                             *
 * Ansys is a registered trademark of ANSYS, Inc. or its       *
 * subsidiaries in the United States or other countries.       *
 * See the ANSYS, Inc. online documentation or the ANSYS, Inc. *
 * documentation CD or online help for the complete Legal      *
 * Notice.                                                     *
 *                                                             *
 ***************************************************************
 *                                                             *
 * THIS ANSYS SOFTWARE PRODUCT AND PROGRAM DOCUMENTATION       *
 * INCLUDE TRADE SECRETS AND CONFIDENTIAL AND PROPRIETARY      *
 * PRODUCTS OF ANSYS, INC., ITS SUBSIDIARIES, OR LICENSORS.    *
 * The software products and documentation are furnished by    *
 * ANSYS, Inc. or its subsidiaries under a software license    *
 * agreement that contains provisions concerning               *
 * non-disclosure, copying, length and nature of use,          *
 * compliance with exporting laws, warranties, disclaimers,    *
 * limitations of liability, and remedies, and other           *
 * provisions.  The software products and documentation may be *
 * used, disclosed, transferred, or copied only in accordance  *
 * with the terms and conditions of that software license      *
 * agreement.                                                  *
 *                                                             *
 * ANSYS, Inc. is a UL registered                              *
 * ISO 9001:2015 company.                                      *
 *                                                             *
 ***************************************************************
 *                                                             *
 * This product is subject to U.S. laws governing export and   *
 * re-export.                                                  *
 *                                                             *
 * For U.S. Government users, except as specifically granted   *
 * by the ANSYS, Inc. software license agreement, the use,     *
 * duplication, or disclosure by the United States Government  *
 * is subject to restrictions stated in the ANSYS, Inc.        *
 * software license agreement and FAR 12.212 (for non-DOD      *
 * licenses).                                                  *
 *                                                             *
 ***************************************************************

 2019 R1 
     
 Point Releases and Patches installed:   
     
 Academic Student 2019 R1
 FENSAP-ICE 2019 R1  


          *****  ANSYS COMMAND LINE ARGUMENTS  *****
  BATCH MODE REQUESTED (-b)    = NOLIST
  INPUT FILE COPY MODE (-c)    = COPY
  DISTRIBUTED MEMORY PARALLEL REQUESTED
       2 PARALLEL PROCESSES REQUESTED WITH SINGLE THREAD PER PROCESS
    TOTAL OF     2 CORES REQUESTED
  DESIGNXPLORER REQUESTED
  INPUT FILE NAME              = C:\Users\Brandon\Desktop\_ProjectScratch\ScrD690\dummy.dat
  OUTPUT FILE NAME             = C:\Users\Brandon\Desktop\_ProjectScratch\ScrD690\solve.out
  START-UP FILE MODE           = NOREAD
  STOP FILE MODE               = NOREAD

 RELEASE= 2019 R1              BUILD= 19.3      UP20181204   VERSION=WINDOWS x64 
 CURRENT JOBNAME=file0  20:42:06  NOV 19, 2019 CP=      0.109


 PARAMETER _DS_PROGRESS =     999.0000000    

 /INPUT FILE= ds.dat  LINE=       0



 *** NOTE ***                            CP =       0.188   TIME= 20:42:06
 The /CONFIG,NOELDB command is not valid in a Distributed ANSYS          
 solution.  Command is ignored.                                          

 *GET  _WALLSTRT  FROM  ACTI  ITEM=TIME WALL  VALUE=  20.7016667    

 TITLE= 
 glidestruct--Static Structural (A5)                                           


 SET PARAMETER DIMENSIONS ON  _WB_PROJECTSCRATCH_DIR
  TYPE=STRI  DIMENSIONS=      248        1        1

 PARAMETER _WB_PROJECTSCRATCH_DIR(1) = C:\Users\Brandon\Desktop\_ProjectScratch\ScrD690\

 SET PARAMETER DIMENSIONS ON  _WB_SOLVERFILES_DIR
  TYPE=STRI  DIMENSIONS=      248        1        1

 PARAMETER _WB_SOLVERFILES_DIR(1) = C:\Users\Brandon\Desktop\glidestruct_files\dp0\SYS\MECH\

 SET PARAMETER DIMENSIONS ON  _WB_USERFILES_DIR
  TYPE=STRI  DIMENSIONS=      248        1        1

 PARAMETER _WB_USERFILES_DIR(1) = C:\Users\Brandon\Desktop\glidestruct_files\user_files\
 --- Data in consistent MKS units. See Solving Units in the help system for more

 MKS UNITS SPECIFIED FOR INTERNAL    
  LENGTH        (l)  = METER (M)
  MASS          (M)  = KILOGRAM (KG)
  TIME          (t)  = SECOND (SEC)
  TEMPERATURE   (T)  = CELSIUS (C)
  TOFFSET            = 273.0
  CHARGE        (Q)  = COULOMB
  FORCE         (f)  = NEWTON (N) (KG-M/SEC2)
  HEAT               = JOULE (N-M)

  PRESSURE           = PASCAL (NEWTON/M**2)
  ENERGY        (W)  = JOULE (N-M)
  POWER         (P)  = WATT (N-M/SEC)
  CURRENT       (i)  = AMPERE (COULOMBS/SEC)
  CAPACITANCE   (C)  = FARAD
  INDUCTANCE    (L)  = HENRY
  MAGNETIC FLUX      = WEBER
  RESISTANCE    (R)  = OHM
  ELECTRIC POTENTIAL = VOLT

 INPUT  UNITS ARE ALSO SET TO MKS 

 *** ANSYS - ENGINEERING ANALYSIS SYSTEM  RELEASE 2019 R1          19.3     ***
 DISTRIBUTED ANSYS Academic Teaching Introductory              

 01055371  VERSION=WINDOWS x64   20:42:06  NOV 19, 2019 CP=      0.188

 glidestruct--Static Structural (A5)                                           



          ***** ANSYS ANALYSIS DEFINITION (PREP7) *****
 *********** Nodes for the whole assembly ***********
 *********** Elements for Body 1 "Line Body" ***********
 *********** Elements for Body 2 "Line Body" ***********
 *********** Elements for Body 3 "Line Body" ***********
 *********** Elements for Body 4 "Line Body" ***********
 *********** Elements for Body 5 "Line Body" ***********
 *********** Elements for Body 6 "Line Body" ***********
 *********** Send User Defined Coordinate System(s) ***********
 *********** Set Reference Temperature ***********
 *********** Send Materials ***********
 *********** Send Beam Properties ***********
 *********** Create Contact "Bonded - Line Body To Line Body" ***********
             Real Constant Set For Above Contact Is 8 & 7
 *********** Create Contact "Bonded - Line Body To Line Body" ***********
             Real Constant Set For Above Contact Is 10 & 9
 *********** Create Contact "Bonded - Line Body To Line Body" ***********
             Real Constant Set For Above Contact Is 12 & 11
 *********** Create Contact "Bonded - Line Body To Line Body" ***********
             Real Constant Set For Above Contact Is 14 & 13
 *********** Create Contact "Bonded - Line Body To Line Body" ***********
             Real Constant Set For Above Contact Is 16 & 15
 *********** Create Contact "Bonded - Line Body To Line Body" ***********
             Real Constant Set For Above Contact Is 18 & 17
 *********** Create Contact "Bonded - Line Body To Line Body" ***********
             Real Constant Set For Above Contact Is 20 & 19
 *********** Create Contact "Bonded - Line Body To Line Body" ***********
             Real Constant Set For Above Contact Is 22 & 21
 *********** Create Contact "Bonded - Line Body To Line Body" ***********
             Real Constant Set For Above Contact Is 24 & 23
 *********** Create Contact "Bonded - Line Body To Line Body" ***********
             Real Constant Set For Above Contact Is 26 & 25
 *********** Fixed Supports ***********
 *********** Define Force Using Surface Effect Elements ***********


 ***** ROUTINE COMPLETED *****  CP =         0.250


 --- Number of total nodes = 212
 --- Number of contact elements = 655
 --- Number of spring elements = 0
 --- Number of bearing elements = 0
 --- Number of solid elements = 103
 --- Number of condensed parts = 0
 --- Number of total elements = 758

 *GET  _WALLBSOL  FROM  ACTI  ITEM=TIME WALL  VALUE=  20.7016667    
 ****************************************************************************
 *************************    SOLUTION       ********************************
 ****************************************************************************

 *****  ANSYS SOLUTION ROUTINE  *****


 PERFORM A STATIC ANALYSIS
  THIS WILL BE A NEW ANALYSIS

 USE SPARSE MATRIX DIRECT SOLVER

 CONTACT INFORMATION PRINTOUT LEVEL       1

 DO NOT COMBINE ELEMENT MATRIX FILES (.emat) AFTER DISTRIBUTED PARALLEL SOLUTION

 DO NOT COMBINE ELEMENT SAVE DATA FILES (.esav) AFTER DISTRIBUTED PARALLEL SOLUTION

 NLDIAG: Nonlinear diagnostics CONT option is set to ON. 
         Writing frequency : each ITERATION.

 DO NOT SAVE ANY RESTART FILES AT ALL
 ****************************************************
 ******************* SOLVE FOR LS 1 OF 1 ****************

 SELECT       FOR ITEM=TYPE COMPONENT=    
  IN RANGE        27 TO         27 STEP          1

         21  ELEMENTS (OF        758  DEFINED) SELECTED BY  ESEL  COMMAND.

 SELECT      ALL NODES HAVING ANY ELEMENT IN ELEMENT SET.

         22 NODES (OF        212  DEFINED) SELECTED FROM
       21 SELECTED ELEMENTS BY NSLE COMMAND.

 SPECIFIED SURFACE LOAD PRES FOR ALL SELECTED ELEMENTS  LKEY =  1   KVAL = 1
     VALUES =     0.0000         0.0000         0.0000         0.0000    

 SPECIFIED SURFACE LOAD PRES FOR ALL SELECTED ELEMENTS  LKEY =  2   KVAL = 1
     VALUES =     0.0000         0.0000         0.0000         0.0000    

 SPECIFIED SURFACE LOAD PRES FOR ALL SELECTED ELEMENTS  LKEY =  3   KVAL = 1
     VALUES =    -164.86        -164.86        -164.86        -164.86    

 ALL SELECT   FOR ITEM=NODE COMPONENT=    
  IN RANGE         1 TO        212 STEP          1

        212  NODES (OF        212  DEFINED) SELECTED BY NSEL  COMMAND.

 ALL SELECT   FOR ITEM=ELEM COMPONENT=    
  IN RANGE         1 TO        758 STEP          1

        758  ELEMENTS (OF        758  DEFINED) SELECTED BY  ESEL  COMMAND.

 PRINTOUT RESUMED BY /GOP

 USE       1 SUBSTEPS INITIALLY THIS LOAD STEP FOR ALL  DEGREES OF FREEDOM
 FOR AUTOMATIC TIME STEPPING:
   USE      1 SUBSTEPS AS A MAXIMUM
   USE      1 SUBSTEPS AS A MINIMUM

 TIME=  1.0000    

 ERASE THE CURRENT DATABASE OUTPUT CONTROL TABLE.


 WRITE ALL  ITEMS TO THE DATABASE WITH A FREQUENCY OF NONE
   FOR ALL APPLICABLE ENTITIES

 WRITE NSOL ITEMS TO THE DATABASE WITH A FREQUENCY OF ALL 
   FOR ALL APPLICABLE ENTITIES

 WRITE RSOL ITEMS TO THE DATABASE WITH A FREQUENCY OF ALL 
   FOR ALL APPLICABLE ENTITIES

 WRITE STRS ITEMS TO THE DATABASE WITH A FREQUENCY OF ALL 
   FOR ALL APPLICABLE ENTITIES

 WRITE EANG ITEMS TO THE DATABASE WITH A FREQUENCY OF ALL 
   FOR ALL APPLICABLE ENTITIES

 WRITE FMAG ITEMS TO THE DATABASE WITH A FREQUENCY OF ALL 
   FOR ALL APPLICABLE ENTITIES

 WRITE CURD ITEMS TO THE DATABASE WITH A FREQUENCY OF ALL 
   FOR ALL APPLICABLE ENTITIES

 WRITE NLDA ITEMS TO THE DATABASE WITH A FREQUENCY OF ALL 
   FOR ALL APPLICABLE ENTITIES

 WRITE EHEA ITEMS TO THE DATABASE WITH A FREQUENCY OF ALL 
   FOR ALL APPLICABLE ENTITIES

 WRITE ETMP ITEMS TO THE DATABASE WITH A FREQUENCY OF ALL 
   FOR ALL APPLICABLE ENTITIES

 WRITE SRFS ITEMS TO THE DATABASE WITH A FREQUENCY OF ALL 
   FOR ALL APPLICABLE ENTITIES

 WRITE CONT ITEMS TO THE DATABASE WITH A FREQUENCY OF ALL 
   FOR ALL APPLICABLE ENTITIES

 WRITE BKST ITEMS TO THE DATABASE WITH A FREQUENCY OF ALL 
   FOR ALL APPLICABLE ENTITIES

 WRITE VENG ITEMS TO THE DATABASE WITH A FREQUENCY OF ALL 
   FOR ALL APPLICABLE ENTITIES

 WRITE EPEL ITEMS TO THE DATABASE WITH A FREQUENCY OF ALL 
   FOR ALL APPLICABLE ENTITIES

 WRITE EPPL ITEMS TO THE DATABASE WITH A FREQUENCY OF ALL 
   FOR ALL APPLICABLE ENTITIES

 PRINTOUT RESUMED BY /GOP

 WRITE MISC ITEMS TO THE DATABASE WITH A FREQUENCY OF ALL 
   FOR THE ENTITIES DEFINED BY COMPONENT _ELMISC 

 NONLINEAR STABILIZATION CONTROL:
 KEY=OFF 


 *GET  ANSINTER_  FROM  ACTI  ITEM=INT        VALUE=  0.00000000    

 *IF  ANSINTER_                         ( =   0.00000     )  NE  
      0                                 ( =   0.00000     )  THEN    

 *ENDIF

 *** NOTE ***                            CP =       0.250   TIME= 20:42:06
 The automatic domain decomposition logic has selected the MESH domain   
 decomposition method with 2 processes per solution.                     

 *****  ANSYS SOLVE    COMMAND  *****

 *** WARNING ***                         CP =       0.250   TIME= 20:42:06
 Element shape checking is currently inactive.  Issue SHPP,ON or         
 SHPP,WARN to reactivate, if desired.                                    

 *** NOTE ***                            CP =       0.266   TIME= 20:42:06
 The model data was checked and warning messages were found.             
  Please review output or errors file (                                  
 C:\Users\Brandon\Desktop\_ProjectScratch\ScrD690\file0.err ) for these  
 warning messages.                                                       

 *** SELECTION OF ELEMENT TECHNOLOGIES FOR APPLICABLE ELEMENTS ***
      --- GIVE SUGGESTIONS AND RESET THE KEY OPTIONS ---

 ELEMENT TYPE    1 IS BEAM188 . KEYOPT(3) IS ALREADY SET AS SUGGESTED AND NO
 RESETTING IS NEEDED.

 ELEMENT TYPE    1 IS BEAM188 . KEYOPT(15) IS ALREADY SET AS SUGGESTED AND NO
 RESETTING IS NEEDED.

 ELEMENT TYPE    2 IS BEAM188 . KEYOPT(3) IS ALREADY SET AS SUGGESTED AND NO
 RESETTING IS NEEDED.

 ELEMENT TYPE    2 IS BEAM188 . KEYOPT(15) IS ALREADY SET AS SUGGESTED AND NO
 RESETTING IS NEEDED.

 ELEMENT TYPE    3 IS BEAM188 . KEYOPT(3) IS ALREADY SET AS SUGGESTED AND NO
 RESETTING IS NEEDED.

 ELEMENT TYPE    3 IS BEAM188 . KEYOPT(15) IS ALREADY SET AS SUGGESTED AND NO
 RESETTING IS NEEDED.

 ELEMENT TYPE    4 IS BEAM188 . KEYOPT(3) IS ALREADY SET AS SUGGESTED AND NO
 RESETTING IS NEEDED.

 ELEMENT TYPE    4 IS BEAM188 . KEYOPT(15) IS ALREADY SET AS SUGGESTED AND NO
 RESETTING IS NEEDED.

 ELEMENT TYPE    5 IS BEAM188 . KEYOPT(3) IS ALREADY SET AS SUGGESTED AND NO
 RESETTING IS NEEDED.

 ELEMENT TYPE    5 IS BEAM188 . KEYOPT(15) IS ALREADY SET AS SUGGESTED AND NO
 RESETTING IS NEEDED.

 ELEMENT TYPE    6 IS BEAM188 . KEYOPT(3) IS ALREADY SET AS SUGGESTED AND NO
 RESETTING IS NEEDED.

 ELEMENT TYPE    6 IS BEAM188 . KEYOPT(15) IS ALREADY SET AS SUGGESTED AND NO
 RESETTING IS NEEDED.



 *** ANSYS - ENGINEERING ANALYSIS SYSTEM  RELEASE 2019 R1          19.3     ***
 DISTRIBUTED ANSYS Academic Teaching Introductory              

 01055371  VERSION=WINDOWS x64   20:42:06  NOV 19, 2019 CP=      0.266

 glidestruct--Static Structural (A5)                                           



                       S O L U T I O N   O P T I O N S

   PROBLEM DIMENSIONALITY. . . . . . . . . . . . .3-D                  
   DEGREES OF FREEDOM. . . . . . UX   UY   UZ   ROTX ROTY ROTZ
   ANALYSIS TYPE . . . . . . . . . . . . . . . . .STATIC (STEADY-STATE)
   OFFSET TEMPERATURE FROM ABSOLUTE ZERO . . . . .  273.15    
   EQUATION SOLVER OPTION. . . . . . . . . . . . .SPARSE             
   GLOBALLY ASSEMBLED MATRIX . . . . . . . . . . .SYMMETRIC  

 *** WARNING ***                         CP =       0.266   TIME= 20:42:06
 Material number 27 (used by element 738) should normally have at least  
 one MP or one TB type command associated with it.  Output of energy by  
 material may not be available.                                          

 *** NOTE ***                            CP =       0.266   TIME= 20:42:06
 The step data was checked and warning messages were found.              
  Please review output or errors file (                                  
 C:\Users\Brandon\Desktop\_ProjectScratch\ScrD690\file0.err ) for these  
 warning messages.                                                       

 *** NOTE ***                            CP =       0.266   TIME= 20:42:06
 Internal nodes from 213 to 315 are created.                             
 103 internal nodes are used for quadratic and/or cubic options of       
 BEAM188, PIPE288, and/or SHELL208.                                      

 *** NOTE ***                            CP =       0.266   TIME= 20:42:06
 Internal nodes from 213 to 315 are created.                             
 103 internal nodes are used for quadratic and/or cubic options of       
 BEAM188, PIPE288, and/or SHELL208.                                      

 *** NOTE ***                            CP =       0.297   TIME= 20:42:06
 Symmetric Deformable- deformable contact pair identified by real        
 constant set 7 and contact element type 7 has been set up.  The         
 companion pair has real constant set ID 8.  Both pairs should have the  
 same behavior.                                                          
 ANSYS will deactivate the current pair and keep its companion pair,     
 resulting in asymmetric contact.                                        
 Penalty based shell - shell assembly
 3D line-surf contact pair is defined
 Crossed line-to-line contact is also included
 Contacting up to 4 layers
 Contact traction based contact model
 Linear contact is defined
 Contact algorithm: Augmented Lagrange method
 Program provided average target radius       0.10000E-02
 Program provided average contact radius      0.10000E-02
 Contact stiffness factor FKN                  10.000    
 The resulting initial contact stiffness      0.28070E+16
 Default penetration tolerance factor FTOLN   0.10000    
 The resulting penetration tolerance          0.10000E-03
 Default opening contact stiffness OPSF will be used.
 Default tangent stiffness factor FKT          1.0000    
 Use constant contact stiffness
 Default Max. friction stress TAUMAX          0.10000E+21
 Average contact surface length               0.14250E-01
 Average contact pair depth                   0.10000E-02
 Default pinball region factor PINB           0.25000    
 The resulting pinball region                 0.22500E-02
 Default target edge extension factor TOLS     10.000    
 Initial penetration/gap is excluded.
 Bonded contact (always) is defined.

 *** NOTE ***                            CP =       0.297   TIME= 20:42:06
 Max.  Initial penetration 2.E-03 was detected between contact element   
 134 and target element 144.                                             
 You may move entire target surface by : x= 0, y= 0, z= 0,to reduce      
 initial penetration.                                                    
 *WARNING*: The geometric gap/penetration may be too large.  Increase    
 pinball radius if it is a true geometric gap/penetration.  Decrease     
 pinball if it is a false one.                                           
 *WARNING*: The initial penetration/gap is relatively large.  Bonded/no  
 separation option may cause an accuracy issue.  Switch to MPC           
 algorithm or you may use the CNCHECK,ADJUST/MORPH command to move the   
 contact nodes towards the target surface.                               
 ****************************************
  

 *** NOTE ***                            CP =       0.297   TIME= 20:42:06
 Symmetric Deformable- deformable contact pair identified by real        
 constant set 8 and contact element type 7 has been set up.  The         
 companion pair has real constant set ID 7.  Both pairs should have the  
 same behavior.                                                          
 ANSYS will keep the current pair and deactivate its companion pair,     
 resulting in asymmetric contact.                                        
 Penalty based shell - shell assembly
 3D line-surf contact pair is defined
 Crossed line-to-line contact is also included
 Contacting up to 4 layers
 Contact traction based contact model
 Linear contact is defined
 Contact algorithm: Augmented Lagrange method
 Program provided average target radius       0.10000E-02
 Program provided average contact radius      0.10000E-02
 Contact stiffness factor FKN                  10.000    
 The resulting initial contact stiffness      0.20267E+17
 Default penetration tolerance factor FTOLN   0.10000    
 The resulting penetration tolerance          0.10000E-03
 Default opening contact stiffness OPSF will be used.
 Default tangent stiffness factor FKT          1.0000    
 Use constant contact stiffness
 Default Max. friction stress TAUMAX          0.10000E+21
 Average contact surface length               0.19737E-02
 Average contact pair depth                   0.10000E-02
 Default pinball region factor PINB           0.25000    
 The resulting pinball region                 0.22500E-02
 Default target edge extension factor TOLS     10.000    
 Initial penetration/gap is excluded.
 Bonded contact (always) is defined.

 *** NOTE ***                            CP =       0.297   TIME= 20:42:06
 Max.  Initial penetration 2.E-03 was detected between contact element   
 136 and target element 118.                                             
 You may move entire target surface by : x= 0, y= 0, z= 0,to reduce      
 initial penetration.                                                    
 *WARNING*: The geometric gap/penetration may be too large.  Increase    
 pinball radius if it is a true geometric gap/penetration.  Decrease     
 pinball if it is a false one.                                           
 *WARNING*: The initial penetration/gap is relatively large.  Bonded/no  
 separation option may cause an accuracy issue.  Switch to MPC           
 algorithm or you may use the CNCHECK,ADJUST/MORPH command to move the   
 contact nodes towards the target surface.                               
 ****************************************
  

 *** NOTE ***                            CP =       0.297   TIME= 20:42:06
 Symmetric Deformable- deformable contact pair identified by real        
 constant set 9 and contact element type 9 has been set up.  The         
 companion pair has real constant set ID 10.  Both pairs should have     
 the same behavior.                                                      
 ANSYS will deactivate the current pair and keep its companion pair,     
 resulting in asymmetric contact.                                        
 Penalty based shell - shell assembly
 3D line-surf contact pair is defined
 Crossed line-to-line contact is also included
 Contacting up to 4 layers
 Contact traction based contact model
 Linear contact is defined
 Contact algorithm: Augmented Lagrange method
 Program provided average target radius       0.10000E-02
 Program provided average contact radius      0.10000E-02
 Contact stiffness factor FKN                  10.000    
 The resulting initial contact stiffness      0.28070E+16
 Default penetration tolerance factor FTOLN   0.10000    
 The resulting penetration tolerance          0.10000E-03
 Default opening contact stiffness OPSF will be used.
 Default tangent stiffness factor FKT          1.0000    
 Use constant contact stiffness
 Default Max. friction stress TAUMAX          0.10000E+21
 Average contact surface length               0.14250E-01
 Average contact pair depth                   0.10000E-02
 Default pinball region factor PINB           0.25000    
 The resulting pinball region                 0.22500E-02
 Default target edge extension factor TOLS     10.000    
 Initial penetration/gap is excluded.
 Bonded contact (always) is defined.

 *** NOTE ***                            CP =       0.297   TIME= 20:42:06
 Max.  Initial penetration 2.E-03 was detected between contact element   
 177 and target element 205.                                             
 You may move entire target surface by : x= 0, y= 0, z= 0,to reduce      
 initial penetration.                                                    
 *WARNING*: The geometric gap/penetration may be too large.  Increase    
 pinball radius if it is a true geometric gap/penetration.  Decrease     
 pinball if it is a false one.                                           
 *WARNING*: The initial penetration/gap is relatively large.  Bonded/no  
 separation option may cause an accuracy issue.  Switch to MPC           
 algorithm or you may use the CNCHECK,ADJUST/MORPH command to move the   
 contact nodes towards the target surface.                               
 ****************************************
  

 *** NOTE ***                            CP =       0.297   TIME= 20:42:06
 Symmetric Deformable- deformable contact pair identified by real        
 constant set 10 and contact element type 9 has been set up.  The        
 companion pair has real constant set ID 9.  Both pairs should have the  
 same behavior.                                                          
 ANSYS will keep the current pair and deactivate its companion pair,     
 resulting in asymmetric contact.                                        
 Penalty based shell - shell assembly
 3D line-surf contact pair is defined
 Crossed line-to-line contact is also included
 Contacting up to 4 layers
 Contact traction based contact model
 Linear contact is defined
 Contact algorithm: Augmented Lagrange method
 Program provided average target radius       0.10000E-02
 Program provided average contact radius      0.10000E-02
 Contact stiffness factor FKN                  10.000    
 The resulting initial contact stiffness      0.52579E+16
 Default penetration tolerance factor FTOLN   0.10000    
 The resulting penetration tolerance          0.10000E-03
 Default opening contact stiffness OPSF will be used.
 Default tangent stiffness factor FKT          1.0000    
 Use constant contact stiffness
 Default Max. friction stress TAUMAX          0.10000E+21
 Average contact surface length               0.76077E-02
 Average contact pair depth                   0.10000E-02
 Default pinball region factor PINB           0.25000    
 The resulting pinball region                 0.22500E-02
 Default target edge extension factor TOLS     10.000    
 Initial penetration/gap is excluded.
 Bonded contact (always) is defined.

 *** NOTE ***                            CP =       0.297   TIME= 20:42:06
 Max.  Initial penetration 2.E-03 was detected between contact element   
 194 and target element 161.                                             
 You may move entire target surface by : x= 0, y= 0, z= 0,to reduce      
 initial penetration.                                                    
 *WARNING*: The geometric gap/penetration may be too large.  Increase    
 pinball radius if it is a true geometric gap/penetration.  Decrease     
 pinball if it is a false one.                                           
 *WARNING*: The initial penetration/gap is relatively large.  Bonded/no  
 separation option may cause an accuracy issue.  Switch to MPC           
 algorithm or you may use the CNCHECK,ADJUST/MORPH command to move the   
 contact nodes towards the target surface.                               
 ****************************************
  

 *** NOTE ***                            CP =       0.297   TIME= 20:42:06
 Symmetric Deformable- deformable contact pair identified by real        
 constant set 11 and contact element type 11 has been set up.  The       
 companion pair has real constant set ID 12.  Both pairs should have     
 the same behavior.                                                      
 ANSYS will deactivate the current pair and keep its companion pair,     
 resulting in asymmetric contact.                                        
 Penalty based shell - shell assembly
 3D line-surf contact pair is defined
 Crossed line-to-line contact is also included
 Contacting up to 4 layers
 Contact traction based contact model
 Linear contact is defined
 Contact algorithm: Augmented Lagrange method
 Program provided average target radius       0.14300E-02
 Program provided average contact radius      0.10000E-02
 Contact stiffness factor FKN                  10.000    
 The resulting initial contact stiffness      0.19629E+16
 Default penetration tolerance factor FTOLN   0.10000    
 The resulting penetration tolerance          0.10000E-03
 Default opening contact stiffness OPSF will be used.
 Default tangent stiffness factor FKT          1.0000    
 Use constant contact stiffness
 Default Max. friction stress TAUMAX          0.10000E+21
 Average contact surface length               0.14250E-01
 Average contact pair depth                   0.10000E-02
 Default pinball region factor PINB           0.25000    
 The resulting pinball region                 0.26800E-02
 Default target edge extension factor TOLS     10.000    
 Initial penetration/gap is excluded.
 Bonded contact (always) is defined.

 *** NOTE ***                            CP =       0.297   TIME= 20:42:06
 Max.  Initial penetration 2.43E-03 was detected between contact element 
 226 and target element 252.                                             
 You may move entire target surface by : x= 0, y= 0, z= 0,to reduce      
 initial penetration.                                                    
 *WARNING*: The geometric gap/penetration may be too large.  Increase    
 pinball radius if it is a true geometric gap/penetration.  Decrease     
 pinball if it is a false one.                                           
 *WARNING*: The initial penetration/gap is relatively large.  Bonded/no  
 separation option may cause an accuracy issue.  Switch to MPC           
 algorithm or you may use the CNCHECK,ADJUST/MORPH command to move the   
 contact nodes towards the target surface.                               
 ****************************************
  

 *** NOTE ***                            CP =       0.297   TIME= 20:42:06
 Symmetric Deformable- deformable contact pair identified by real        
 constant set 12 and contact element type 11 has been set up.  The       
 companion pair has real constant set ID 11.  Both pairs should have     
 the same behavior.                                                      
 ANSYS will keep the current pair and deactivate its companion pair,     
 resulting in asymmetric contact.                                        
 Penalty based shell - shell assembly
 3D line-surf contact pair is defined
 Crossed line-to-line contact is also included
 Contacting up to 4 layers
 Contact traction based contact model
 Linear contact is defined
 Contact algorithm: Augmented Lagrange method
 Program provided average target radius       0.10000E-02
 Program provided average contact radius      0.14300E-02
 Contact stiffness factor FKN                  10.000    
 The resulting initial contact stiffness      0.38785E+16
 Default penetration tolerance factor FTOLN   0.10000    
 The resulting penetration tolerance          0.14300E-03
 Default opening contact stiffness OPSF will be used.
 Default tangent stiffness factor FKT          1.0000    
 Use constant contact stiffness
 Default Max. friction stress TAUMAX          0.10000E+21
 Average contact surface length               0.10313E-01
 Average contact pair depth                   0.14300E-02
 Default pinball region factor PINB           0.25000    
 The resulting pinball region                 0.27875E-02
 Default target edge extension factor TOLS     10.000    
 Initial penetration/gap is excluded.
 Bonded contact (always) is defined.

 *** NOTE ***                            CP =       0.297   TIME= 20:42:06
 Max.  Initial penetration 2.43E-03 was detected between contact element 
 238 and target element 210.                                             
 You may move entire target surface by : x= 0, y= 0, z= 0,to reduce      
 initial penetration.                                                    
 *WARNING*: The geometric gap/penetration may be too large.  Increase    
 pinball radius if it is a true geometric gap/penetration.  Decrease     
 pinball if it is a false one.                                           
 *WARNING*: The initial penetration/gap is relatively large.  Bonded/no  
 separation option may cause an accuracy issue.  Switch to MPC           
 algorithm or you may use the CNCHECK,ADJUST/MORPH command to move the   
 contact nodes towards the target surface.                               
 ****************************************
  

 *** NOTE ***                            CP =       0.297   TIME= 20:42:06
 Symmetric Deformable- deformable contact pair identified by real        
 constant set 13 and contact element type 13 has been set up.  The       
 companion pair has real constant set ID 14.  Both pairs should have     
 the same behavior.                                                      
 ANSYS will keep the current pair and deactivate its companion pair,     
 resulting in asymmetric contact.                                        
 Penalty based shell - shell assembly
 3D line-surf contact pair is defined
 Crossed line-to-line contact is also included
 Contacting up to 4 layers
 Contact traction based contact model
 Linear contact is defined
 Contact algorithm: Augmented Lagrange method
 Program provided average target radius       0.13700E-02
 Program provided average contact radius      0.10000E-02
 Contact stiffness factor FKN                  10.000    
 The resulting initial contact stiffness      0.20489E+16
 Default penetration tolerance factor FTOLN   0.10000    
 The resulting penetration tolerance          0.10000E-03
 Default opening contact stiffness OPSF will be used.
 Default tangent stiffness factor FKT          1.0000    
 Use constant contact stiffness
 Default Max. friction stress TAUMAX          0.10000E+21
 Average contact surface length               0.14250E-01
 Average contact pair depth                   0.10000E-02
 Default pinball region factor PINB           0.25000    
 The resulting pinball region                 0.26200E-02
 Default target edge extension factor TOLS     10.000    
 Initial penetration/gap is excluded.
 Bonded contact (always) is defined.

 *** NOTE ***                            CP =       0.297   TIME= 20:42:06
 Max.  Initial penetration 2.37E-03 was detected between contact element 
 284 and target element 329.                                             
 You may move entire target surface by : x= 0, y= 0, z= 0,to reduce      
 initial penetration.                                                    
 *WARNING*: The geometric gap/penetration may be too large.  Increase    
 pinball radius if it is a true geometric gap/penetration.  Decrease     
 pinball if it is a false one.                                           
 *WARNING*: The initial penetration/gap is relatively large.  Bonded/no  
 separation option may cause an accuracy issue.  Switch to MPC           
 algorithm or you may use the CNCHECK,ADJUST/MORPH command to move the   
 contact nodes towards the target surface.                               
 ****************************************
  

 *** NOTE ***                            CP =       0.297   TIME= 20:42:06
 Symmetric Deformable- deformable contact pair identified by real        
 constant set 14 and contact element type 13 has been set up.  The       
 companion pair has real constant set ID 13.  Both pairs should have     
 the same behavior.                                                      
 ANSYS will deactivate the current pair and keep its companion pair,     
 resulting in asymmetric contact.                                        
 Penalty based shell - shell assembly
 3D line-surf contact pair is defined
 Crossed line-to-line contact is also included
 Contacting up to 4 layers
 Contact traction based contact model
 Linear contact is defined
 Contact algorithm: Augmented Lagrange method
 Program provided average target radius       0.10000E-02
 Program provided average contact radius      0.13700E-02
 Contact stiffness factor FKN                  10.000    
 The resulting initial contact stiffness      0.37531E+16
 Default penetration tolerance factor FTOLN   0.10000    
 The resulting penetration tolerance          0.13700E-03
 Default opening contact stiffness OPSF will be used.
 Default tangent stiffness factor FKT          1.0000    
 Use constant contact stiffness
 Default Max. friction stress TAUMAX          0.10000E+21
 Average contact surface length               0.10658E-01
 Average contact pair depth                   0.13700E-02
 Default pinball region factor PINB           0.25000    
 The resulting pinball region                 0.27125E-02
 Default target edge extension factor TOLS     10.000    
 Initial penetration/gap is excluded.
 Bonded contact (always) is defined.

 *** NOTE ***                            CP =       0.297   TIME= 20:42:06
 Max.  Initial penetration 2.37E-03 was detected between contact element 
 313 and target element 268.                                             
 You may move entire target surface by : x= 0, y= 0, z= 0,to reduce      
 initial penetration.                                                    
 *WARNING*: The geometric gap/penetration may be too large.  Increase    
 pinball radius if it is a true geometric gap/penetration.  Decrease     
 pinball if it is a false one.                                           
 *WARNING*: The initial penetration/gap is relatively large.  Bonded/no  
 separation option may cause an accuracy issue.  Switch to MPC           
 algorithm or you may use the CNCHECK,ADJUST/MORPH command to move the   
 contact nodes towards the target surface.                               
 ****************************************
  

 *** NOTE ***                            CP =       0.297   TIME= 20:42:06
 Symmetric Deformable- deformable contact pair identified by real        
 constant set 15 and contact element type 15 has been set up.  The       
 companion pair has real constant set ID 16.  Both pairs should have     
 the same behavior.                                                      
 ANSYS will deactivate the current pair and keep its companion pair,     
 resulting in asymmetric contact.                                        
 Penalty based shell - shell assembly
 3D line-surf contact pair is defined
 Crossed line-to-line contact is also included
 Contacting up to 4 layers
 Contact traction based contact model
 Linear contact is defined
 Contact algorithm: Augmented Lagrange method
 Program provided average target radius       0.10000E-02
 Program provided average contact radius      0.10000E-02
 Contact stiffness factor FKN                  10.000    
 The resulting initial contact stiffness      0.27696E+16
 Default penetration tolerance factor FTOLN   0.10000    
 The resulting penetration tolerance          0.10000E-03
 Default opening contact stiffness OPSF will be used.
 Default tangent stiffness factor FKT          1.0000    
 Use constant contact stiffness
 Default Max. friction stress TAUMAX          0.10000E+21
 Average contact surface length               0.14442E-01
 Average contact pair depth                   0.10000E-02
 Default pinball region factor PINB           0.25000    
 The resulting pinball region                 0.22500E-02
 Default target edge extension factor TOLS     10.000    
 Initial penetration/gap is excluded.
 Bonded contact (always) is defined.

 *** NOTE ***                            CP =       0.297   TIME= 20:42:06
 Max.  Initial penetration 2.E-03 was detected between contact element   
 370 and target element 387.                                             
 You may move entire target surface by : x= 0, y= 0, z= 0,to reduce      
 initial penetration.                                                    
 *WARNING*: The geometric gap/penetration may be too large.  Increase    
 pinball radius if it is a true geometric gap/penetration.  Decrease     
 pinball if it is a false one.                                           
 *WARNING*: The initial penetration/gap is relatively large.  Bonded/no  
 separation option may cause an accuracy issue.  Switch to MPC           
 algorithm or you may use the CNCHECK,ADJUST/MORPH command to move the   
 contact nodes towards the target surface.                               
 ****************************************
  

 *** NOTE ***                            CP =       0.297   TIME= 20:42:06
 Symmetric Deformable- deformable contact pair identified by real        
 constant set 16 and contact element type 15 has been set up.  The       
 companion pair has real constant set ID 15.  Both pairs should have     
 the same behavior.                                                      
 ANSYS will keep the current pair and deactivate its companion pair,     
 resulting in asymmetric contact.                                        
 Penalty based shell - shell assembly
 3D line-surf contact pair is defined
 Crossed line-to-line contact is also included
 Contacting up to 4 layers
 Contact traction based contact model
 Linear contact is defined
 Contact algorithm: Augmented Lagrange method
 Program provided average target radius       0.10000E-02
 Program provided average contact radius      0.10000E-02
 Contact stiffness factor FKN                  10.000    
 The resulting initial contact stiffness      0.20267E+17
 Default penetration tolerance factor FTOLN   0.10000    
 The resulting penetration tolerance          0.10000E-03
 Default opening contact stiffness OPSF will be used.
 Default tangent stiffness factor FKT          1.0000    
 Use constant contact stiffness
 Default Max. friction stress TAUMAX          0.10000E+21
 Average contact surface length               0.19737E-02
 Average contact pair depth                   0.10000E-02
 Default pinball region factor PINB           0.25000    
 The resulting pinball region                 0.22500E-02
 Default target edge extension factor TOLS     10.000    
 Initial penetration/gap is excluded.
 Bonded contact (always) is defined.

 *** NOTE ***                            CP =       0.297   TIME= 20:42:06
 Max.  Initial penetration 2.E-03 was detected between contact element   
 379 and target element 349.                                             
 You may move entire target surface by : x= 0, y= 0, z= 0,to reduce      
 initial penetration.                                                    
 *WARNING*: The geometric gap/penetration may be too large.  Increase    
 pinball radius if it is a true geometric gap/penetration.  Decrease     
 pinball if it is a false one.                                           
 *WARNING*: The initial penetration/gap is relatively large.  Bonded/no  
 separation option may cause an accuracy issue.  Switch to MPC           
 algorithm or you may use the CNCHECK,ADJUST/MORPH command to move the   
 contact nodes towards the target surface.                               
 ****************************************
  

 *** NOTE ***                            CP =       0.297   TIME= 20:42:06
 Symmetric Deformable- deformable contact pair identified by real        
 constant set 17 and contact element type 17 has been set up.  The       
 companion pair has real constant set ID 18.  Both pairs should have     
 the same behavior.                                                      
 ANSYS will deactivate the current pair and keep its companion pair,     
 resulting in asymmetric contact.                                        
 Penalty based shell - shell assembly
 3D line-surf contact pair is defined
 Crossed line-to-line contact is also included
 Contacting up to 4 layers
 Contact traction based contact model
 Linear contact is defined
 Contact algorithm: Augmented Lagrange method
 Program provided average target radius       0.10000E-02
 Program provided average contact radius      0.10000E-02
 Contact stiffness factor FKN                  10.000    
 The resulting initial contact stiffness      0.27696E+16
 Default penetration tolerance factor FTOLN   0.10000    
 The resulting penetration tolerance          0.10000E-03
 Default opening contact stiffness OPSF will be used.
 Default tangent stiffness factor FKT          1.0000    
 Use constant contact stiffness
 Default Max. friction stress TAUMAX          0.10000E+21
 Average contact surface length               0.14442E-01
 Average contact pair depth                   0.10000E-02
 Default pinball region factor PINB           0.25000    
 The resulting pinball region                 0.22500E-02
 Default target edge extension factor TOLS     10.000    
 Initial penetration/gap is excluded.
 Bonded contact (always) is defined.

 *** NOTE ***                            CP =       0.328   TIME= 20:42:06
 Max.  Initial penetration 2.E-03 was detected between contact element   
 421 and target element 441.                                             
 You may move entire target surface by : x= 0, y= 0, z= 0,to reduce      
 initial penetration.                                                    
 *WARNING*: The geometric gap/penetration may be too large.  Increase    
 pinball radius if it is a true geometric gap/penetration.  Decrease     
 pinball if it is a false one.                                           
 *WARNING*: The initial penetration/gap is relatively large.  Bonded/no  
 separation option may cause an accuracy issue.  Switch to MPC           
 algorithm or you may use the CNCHECK,ADJUST/MORPH command to move the   
 contact nodes towards the target surface.                               
 ****************************************
  

 *** NOTE ***                            CP =       0.328   TIME= 20:42:06
 Symmetric Deformable- deformable contact pair identified by real        
 constant set 18 and contact element type 17 has been set up.  The       
 companion pair has real constant set ID 17.  Both pairs should have     
 the same behavior.                                                      
 ANSYS will keep the current pair and deactivate its companion pair,     
 resulting in asymmetric contact.                                        
 Penalty based shell - shell assembly
 3D line-surf contact pair is defined
 Crossed line-to-line contact is also included
 Contacting up to 4 layers
 Contact traction based contact model
 Linear contact is defined
 Contact algorithm: Augmented Lagrange method
 Program provided average target radius       0.10000E-02
 Program provided average contact radius      0.10000E-02
 Contact stiffness factor FKN                  10.000    
 The resulting initial contact stiffness      0.52579E+16
 Default penetration tolerance factor FTOLN   0.10000    
 The resulting penetration tolerance          0.10000E-03
 Default opening contact stiffness OPSF will be used.
 Default tangent stiffness factor FKT          1.0000    
 Use constant contact stiffness
 Default Max. friction stress TAUMAX          0.10000E+21
 Average contact surface length               0.76077E-02
 Average contact pair depth                   0.10000E-02
 Default pinball region factor PINB           0.25000    
 The resulting pinball region                 0.22500E-02
 Default target edge extension factor TOLS     10.000    
 Initial penetration/gap is excluded.
 Bonded contact (always) is defined.

 *** NOTE ***                            CP =       0.328   TIME= 20:42:06
 Max.  Initial penetration 2.E-03 was detected between contact element   
 430 and target element 400.                                             
 You may move entire target surface by : x= 0, y= 0, z= 0,to reduce      
 initial penetration.                                                    
 *WARNING*: The geometric gap/penetration may be too large.  Increase    
 pinball radius if it is a true geometric gap/penetration.  Decrease     
 pinball if it is a false one.                                           
 *WARNING*: The initial penetration/gap is relatively large.  Bonded/no  
 separation option may cause an accuracy issue.  Switch to MPC           
 algorithm or you may use the CNCHECK,ADJUST/MORPH command to move the   
 contact nodes towards the target surface.                               
 ****************************************
  

 *** NOTE ***                            CP =       0.328   TIME= 20:42:06
 Symmetric Deformable- deformable contact pair identified by real        
 constant set 19 and contact element type 19 has been set up.  The       
 companion pair has real constant set ID 20.  Both pairs should have     
 the same behavior.                                                      
 ANSYS will deactivate the current pair and keep its companion pair,     
 resulting in asymmetric contact.                                        
 Penalty based shell - shell assembly
 3D line-surf contact pair is defined
 Crossed line-to-line contact is also included
 Contacting up to 4 layers
 Contact traction based contact model
 Linear contact is defined
 Contact algorithm: Augmented Lagrange method
 Program provided average target radius       0.14300E-02
 Program provided average contact radius      0.10000E-02
 Contact stiffness factor FKN                  10.000    
 The resulting initial contact stiffness      0.19368E+16
 Default penetration tolerance factor FTOLN   0.10000    
 The resulting penetration tolerance          0.10000E-03
 Default opening contact stiffness OPSF will be used.
 Default tangent stiffness factor FKT          1.0000    
 Use constant contact stiffness
 Default Max. friction stress TAUMAX          0.10000E+21
 Average contact surface length               0.14442E-01
 Average contact pair depth                   0.10000E-02
 Default pinball region factor PINB           0.25000    
 The resulting pinball region                 0.26800E-02
 Default target edge extension factor TOLS     10.000    
 Initial penetration/gap is excluded.
 Bonded contact (always) is defined.

 *** NOTE ***                            CP =       0.328   TIME= 20:42:06
 Max.  Initial penetration 2.43E-03 was detected between contact element 
 478 and target element 521.                                             
 You may move entire target surface by : x= 0, y= 0, z= 0,to reduce      
 initial penetration.                                                    
 *WARNING*: The geometric gap/penetration may be too large.  Increase    
 pinball radius if it is a true geometric gap/penetration.  Decrease     
 pinball if it is a false one.                                           
 *WARNING*: The initial penetration/gap is relatively large.  Bonded/no  
 separation option may cause an accuracy issue.  Switch to MPC           
 algorithm or you may use the CNCHECK,ADJUST/MORPH command to move the   
 contact nodes towards the target surface.                               
 ****************************************
  

 *** NOTE ***                            CP =       0.328   TIME= 20:42:06
 Symmetric Deformable- deformable contact pair identified by real        
 constant set 20 and contact element type 19 has been set up.  The       
 companion pair has real constant set ID 19.  Both pairs should have     
 the same behavior.                                                      
 ANSYS will keep the current pair and deactivate its companion pair,     
 resulting in asymmetric contact.                                        
 Penalty based shell - shell assembly
 3D line-surf contact pair is defined
 Crossed line-to-line contact is also included
 Contacting up to 4 layers
 Contact traction based contact model
 Linear contact is defined
 Contact algorithm: Augmented Lagrange method
 Program provided average target radius       0.10000E-02
 Program provided average contact radius      0.14300E-02
 Contact stiffness factor FKN                  10.000    
 The resulting initial contact stiffness      0.38785E+16
 Default penetration tolerance factor FTOLN   0.10000    
 The resulting penetration tolerance          0.14300E-03
 Default opening contact stiffness OPSF will be used.
 Default tangent stiffness factor FKT          1.0000    
 Use constant contact stiffness
 Default Max. friction stress TAUMAX          0.10000E+21
 Average contact surface length               0.10313E-01
 Average contact pair depth                   0.14300E-02
 Default pinball region factor PINB           0.25000    
 The resulting pinball region                 0.27875E-02
 Default target edge extension factor TOLS     10.000    
 Initial penetration/gap is excluded.
 Bonded contact (always) is defined.

 *** NOTE ***                            CP =       0.328   TIME= 20:42:06
 Max.  Initial penetration 2.43E-03 was detected between contact element 
 507 and target element 457.                                             
 You may move entire target surface by : x= 0, y= 0, z= 0,to reduce      
 initial penetration.                                                    
 *WARNING*: The geometric gap/penetration may be too large.  Increase    
 pinball radius if it is a true geometric gap/penetration.  Decrease     
 pinball if it is a false one.                                           
 *WARNING*: The initial penetration/gap is relatively large.  Bonded/no  
 separation option may cause an accuracy issue.  Switch to MPC           
 algorithm or you may use the CNCHECK,ADJUST/MORPH command to move the   
 contact nodes towards the target surface.                               
 ****************************************
  

 *** NOTE ***                            CP =       0.328   TIME= 20:42:06
 Symmetric Deformable- deformable contact pair identified by real        
 constant set 21 and contact element type 21 has been set up.  The       
 companion pair has real constant set ID 22.  Both pairs should have     
 the same behavior.                                                      
 ANSYS will deactivate the current pair and keep its companion pair,     
 resulting in asymmetric contact.                                        
 Penalty based shell - shell assembly
 3D line-surf contact pair is defined
 Crossed line-to-line contact is also included
 Contacting up to 4 layers
 Contact traction based contact model
 Linear contact is defined
 Contact algorithm: Augmented Lagrange method
 Program provided average target radius       0.13700E-02
 Program provided average contact radius      0.10000E-02
 Contact stiffness factor FKN                  10.000    
 The resulting initial contact stiffness      0.20216E+16
 Default penetration tolerance factor FTOLN   0.10000    
 The resulting penetration tolerance          0.10000E-03
 Default opening contact stiffness OPSF will be used.
 Default tangent stiffness factor FKT          1.0000    
 Use constant contact stiffness
 Default Max. friction stress TAUMAX          0.10000E+21
 Average contact surface length               0.14442E-01
 Average contact pair depth                   0.10000E-02
 Default pinball region factor PINB           0.25000    
 The resulting pinball region                 0.26200E-02
 Default target edge extension factor TOLS     10.000    
 Initial penetration/gap is excluded.
 Bonded contact (always) is defined.

 *** NOTE ***                            CP =       0.328   TIME= 20:42:06
 Max.  Initial penetration 2.37E-03 was detected between contact element 
 546 and target element 580.                                             
 You may move entire target surface by : x= 0, y= 0, z= 0,to reduce      
 initial penetration.                                                    
 *WARNING*: The geometric gap/penetration may be too large.  Increase    
 pinball radius if it is a true geometric gap/penetration.  Decrease     
 pinball if it is a false one.                                           
 *WARNING*: The initial penetration/gap is relatively large.  Bonded/no  
 separation option may cause an accuracy issue.  Switch to MPC           
 algorithm or you may use the CNCHECK,ADJUST/MORPH command to move the   
 contact nodes towards the target surface.                               
 ****************************************
  

 *** NOTE ***                            CP =       0.328   TIME= 20:42:06
 Symmetric Deformable- deformable contact pair identified by real        
 constant set 22 and contact element type 21 has been set up.  The       
 companion pair has real constant set ID 21.  Both pairs should have     
 the same behavior.                                                      
 ANSYS will keep the current pair and deactivate its companion pair,     
 resulting in asymmetric contact.                                        
 Penalty based shell - shell assembly
 3D line-surf contact pair is defined
 Crossed line-to-line contact is also included
 Contacting up to 4 layers
 Contact traction based contact model
 Linear contact is defined
 Contact algorithm: Augmented Lagrange method
 Program provided average target radius       0.10000E-02
 Program provided average contact radius      0.13700E-02
 Contact stiffness factor FKN                  10.000    
 The resulting initial contact stiffness      0.37531E+16
 Default penetration tolerance factor FTOLN   0.10000    
 The resulting penetration tolerance          0.13700E-03
 Default opening contact stiffness OPSF will be used.
 Default tangent stiffness factor FKT          1.0000    
 Use constant contact stiffness
 Default Max. friction stress TAUMAX          0.10000E+21
 Average contact surface length               0.10658E-01
 Average contact pair depth                   0.13700E-02
 Default pinball region factor PINB           0.25000    
 The resulting pinball region                 0.27125E-02
 Default target edge extension factor TOLS     10.000    
 Initial penetration/gap is excluded.
 Bonded contact (always) is defined.

 *** NOTE ***                            CP =       0.328   TIME= 20:42:06
 Max.  Initial penetration 2.37E-03 was detected between contact element 
 564 and target element 525.                                             
 You may move entire target surface by : x= 0, y= 0, z= 0,to reduce      
 initial penetration.                                                    
 *WARNING*: The geometric gap/penetration may be too large.  Increase    
 pinball radius if it is a true geometric gap/penetration.  Decrease     
 pinball if it is a false one.                                           
 *WARNING*: The initial penetration/gap is relatively large.  Bonded/no  
 separation option may cause an accuracy issue.  Switch to MPC           
 algorithm or you may use the CNCHECK,ADJUST/MORPH command to move the   
 contact nodes towards the target surface.                               
 ****************************************
  

 *** NOTE ***                            CP =       0.328   TIME= 20:42:06
 Symmetric Deformable- deformable contact pair identified by real        
 constant set 23 and contact element type 23 has been set up.  The       
 companion pair has real constant set ID 24.  Both pairs should have     
 the same behavior.                                                      
 ANSYS will keep the current pair and deactivate its companion pair,     
 resulting in asymmetric contact.                                        
 Penalty based shell - shell assembly
 3D line-surf contact pair is defined
 Crossed line-to-line contact is also included
 Contacting up to 4 layers
 Contact traction based contact model
 Linear contact is defined
 Contact algorithm: Augmented Lagrange method
 Program provided average target radius       0.14600E-02
 Program provided average contact radius      0.10000E-02
 Contact stiffness factor FKN                  10.000    
 The resulting initial contact stiffness      0.19226E+16
 Default penetration tolerance factor FTOLN   0.10000    
 The resulting penetration tolerance          0.10000E-03
 Default opening contact stiffness OPSF will be used.
 Default tangent stiffness factor FKT          1.0000    
 Use constant contact stiffness
 Default Max. friction stress TAUMAX          0.10000E+21
 Average contact surface length               0.14250E-01
 Average contact pair depth                   0.10000E-02
 Default pinball region factor PINB           0.25000    
 The resulting pinball region                 0.27100E-02
 Default target edge extension factor TOLS     10.000    
 Initial penetration/gap is excluded.
 Bonded contact (always) is defined.

 *** NOTE ***                            CP =       0.328   TIME= 20:42:06
 Max.  Initial penetration 2.46E-03 was detected between contact element 
 612 and target element 661.                                             
 You may move entire target surface by : x= 0, y= 0, z= 0,to reduce      
 initial penetration.                                                    
 *WARNING*: The geometric gap/penetration may be too large.  Increase    
 pinball radius if it is a true geometric gap/penetration.  Decrease     
 pinball if it is a false one.                                           
 *WARNING*: The initial penetration/gap is relatively large.  Bonded/no  
 separation option may cause an accuracy issue.  Switch to MPC           
 algorithm or you may use the CNCHECK,ADJUST/MORPH command to move the   
 contact nodes towards the target surface.                               
 ****************************************
  

 *** NOTE ***                            CP =       0.328   TIME= 20:42:06
 Symmetric Deformable- deformable contact pair identified by real        
 constant set 24 and contact element type 23 has been set up.  The       
 companion pair has real constant set ID 23.  Both pairs should have     
 the same behavior.                                                      
 ANSYS will deactivate the current pair and keep its companion pair,     
 resulting in asymmetric contact.                                        
 Penalty based shell - shell assembly
 3D line-surf contact pair is defined
 Crossed line-to-line contact is also included
 Contacting up to 4 layers
 Contact traction based contact model
 Linear contact is defined
 Contact algorithm: Augmented Lagrange method
 Program provided average target radius       0.10000E-02
 Program provided average contact radius      0.14600E-02
 Contact stiffness factor FKN                  10.000    
 The resulting initial contact stiffness      0.34000E+16
 Default penetration tolerance factor FTOLN   0.10000    
 The resulting penetration tolerance          0.14600E-03
 Default opening contact stiffness OPSF will be used.
 Default tangent stiffness factor FKT          1.0000    
 Use constant contact stiffness
 Default Max. friction stress TAUMAX          0.10000E+21
 Average contact surface length               0.11765E-01
 Average contact pair depth                   0.14600E-02
 Default pinball region factor PINB           0.25000    
 The resulting pinball region                 0.28250E-02
 Default target edge extension factor TOLS     10.000    
 Initial penetration/gap is excluded.
 Bonded contact (always) is defined.

 *** NOTE ***                            CP =       0.328   TIME= 20:42:06
 Max.  Initial penetration 2.46E-03 was detected between contact element 
 644 and target element 596.                                             
 You may move entire target surface by : x= 0, y= 0, z= 0,to reduce      
 initial penetration.                                                    
 *WARNING*: The geometric gap/penetration may be too large.  Increase    
 pinball radius if it is a true geometric gap/penetration.  Decrease     
 pinball if it is a false one.                                           
 *WARNING*: The initial penetration/gap is relatively large.  Bonded/no  
 separation option may cause an accuracy issue.  Switch to MPC           
 algorithm or you may use the CNCHECK,ADJUST/MORPH command to move the   
 contact nodes towards the target surface.                               
 ****************************************
  

 *** NOTE ***                            CP =       0.328   TIME= 20:42:06
 Symmetric Deformable- deformable contact pair identified by real        
 constant set 25 and contact element type 25 has been set up.  The       
 companion pair has real constant set ID 26.  Both pairs should have     
 the same behavior.                                                      
 ANSYS will deactivate the current pair and keep its companion pair,     
 resulting in asymmetric contact.                                        
 Penalty based shell - shell assembly
 3D line-surf contact pair is defined
 Crossed line-to-line contact is also included
 Contacting up to 4 layers
 Contact traction based contact model
 Linear contact is defined
 Contact algorithm: Augmented Lagrange method
 Program provided average target radius       0.14600E-02
 Program provided average contact radius      0.10000E-02
 Contact stiffness factor FKN                  10.000    
 The resulting initial contact stiffness      0.18970E+16
 Default penetration tolerance factor FTOLN   0.10000    
 The resulting penetration tolerance          0.10000E-03
 Default opening contact stiffness OPSF will be used.
 Default tangent stiffness factor FKT          1.0000    
 Use constant contact stiffness
 Default Max. friction stress TAUMAX          0.10000E+21
 Average contact surface length               0.14442E-01
 Average contact pair depth                   0.10000E-02
 Default pinball region factor PINB           0.25000    
 The resulting pinball region                 0.27100E-02
 Default target edge extension factor TOLS     10.000    
 Initial penetration/gap is excluded.
 Bonded contact (always) is defined.

 *** NOTE ***                            CP =       0.328   TIME= 20:42:06
 Max.  Initial penetration 2.46E-03 was detected between contact element 
 683 and target element 721.                                             
 You may move entire target surface by : x= 0, y= 0, z= 0,to reduce      
 initial penetration.                                                    
 *WARNING*: The geometric gap/penetration may be too large.  Increase    
 pinball radius if it is a true geometric gap/penetration.  Decrease     
 pinball if it is a false one.                                           
 *WARNING*: The initial penetration/gap is relatively large.  Bonded/no  
 separation option may cause an accuracy issue.  Switch to MPC           
 algorithm or you may use the CNCHECK,ADJUST/MORPH command to move the   
 contact nodes towards the target surface.                               
 ****************************************
  

 *** NOTE ***                            CP =       0.328   TIME= 20:42:06
 Symmetric Deformable- deformable contact pair identified by real        
 constant set 26 and contact element type 25 has been set up.  The       
 companion pair has real constant set ID 25.  Both pairs should have     
 the same behavior.                                                      
 ANSYS will keep the current pair and deactivate its companion pair,     
 resulting in asymmetric contact.                                        
 Penalty based shell - shell assembly
 3D line-surf contact pair is defined
 Crossed line-to-line contact is also included
 Contacting up to 4 layers
 Contact traction based contact model
 Linear contact is defined
 Contact algorithm: Augmented Lagrange method
 Program provided average target radius       0.10000E-02
 Program provided average contact radius      0.14600E-02
 Contact stiffness factor FKN                  10.000    
 The resulting initial contact stiffness      0.34000E+16
 Default penetration tolerance factor FTOLN   0.10000    
 The resulting penetration tolerance          0.14600E-03
 Default opening contact stiffness OPSF will be used.
 Default tangent stiffness factor FKT          1.0000    
 Use constant contact stiffness
 Default Max. friction stress TAUMAX          0.10000E+21
 Average contact surface length               0.11765E-01
 Average contact pair depth                   0.14600E-02
 Default pinball region factor PINB           0.25000    
 The resulting pinball region                 0.28250E-02
 Default target edge extension factor TOLS     10.000    
 Initial penetration/gap is excluded.
 Bonded contact (always) is defined.

 *** NOTE ***                            CP =       0.328   TIME= 20:42:06
 Max.  Initial penetration 2.46E-03 was detected between contact element 
 704 and target element 662.                                             
 You may move entire target surface by : x= 0, y= 0, z= 0,to reduce      
 initial penetration.                                                    
 *WARNING*: The geometric gap/penetration may be too large.  Increase    
 pinball radius if it is a true geometric gap/penetration.  Decrease     
 pinball if it is a false one.                                           
 *WARNING*: The initial penetration/gap is relatively large.  Bonded/no  
 separation option may cause an accuracy issue.  Switch to MPC           
 algorithm or you may use the CNCHECK,ADJUST/MORPH command to move the   
 contact nodes towards the target surface.                               
 ****************************************
  

 *** WARNING ***                         CP =       0.328   TIME= 20:42:06
 Maximum contact stiffness 2.026666667E+16 is too big which can cause an 
 accuracy problem, you may scale the force units in the model.           
  
  

 *** NOTE ***                            CP =       0.328   TIME= 20:42:06
 Internal nodes from 213 to 315 are created.                             
 103 internal nodes are used for quadratic and/or cubic options of       
 BEAM188, PIPE288, and/or SHELL208.                                      

  
  
     D I S T R I B U T E D   D O M A I N   D E C O M P O S E R
  
  ...Number of elements: 758
  ...Number of nodes:    315
  ...Decompose to 2 CPU domains
  ...Element load balance ratio =     1.008


                      L O A D   S T E P   O P T I O N S

   LOAD STEP NUMBER. . . . . . . . . . . . . . . .     1
   TIME AT END OF THE LOAD STEP. . . . . . . . . .  1.0000    
   NUMBER OF SUBSTEPS. . . . . . . . . . . . . . .     1
   STEP CHANGE BOUNDARY CONDITIONS . . . . . . . .    NO
   PRINT OUTPUT CONTROLS . . . . . . . . . . . . .NO PRINTOUT
   DATABASE OUTPUT CONTROLS
      ITEM     FREQUENCY   COMPONENT
       ALL       NONE               
      NSOL        ALL               
      RSOL        ALL               
      STRS        ALL               
      EANG        ALL               
      FMAG        ALL               
      CURD        ALL               
      NLDA        ALL               
      EHEA        ALL               
      ETMP        ALL               
      SRFS        ALL               
      CONT        ALL               
      BKST        ALL               
      VENG        ALL               
      EPEL        ALL               
      EPPL        ALL               
      MISC        ALL       _ELMISC 


 SOLUTION MONITORING INFO IS WRITTEN TO FILE= file.mntr                                                                                                                                                                                                                                                           

 *** NOTE ***                            CP =       0.359   TIME= 20:42:06
 Symmetric Deformable- deformable contact pair identified by real        
 constant set 7 and contact element type 7 has been set up.  The         
 companion pair has real constant set ID 8.  Both pairs should have the  
 same behavior.                                                          
 ANSYS will deactivate the current pair and keep its companion pair,     
 resulting in asymmetric contact.                                        
 Penalty based shell - shell assembly
 3D line-surf contact pair is defined
 Crossed line-to-line contact is also included
 Contacting up to 4 layers
 Contact traction based contact model
 Linear contact is defined
 Contact algorithm: Augmented Lagrange method
 Program provided average target radius       0.10000E-02
 Program provided average contact radius      0.10000E-02
 Contact stiffness factor FKN                  10.000    
 The resulting initial contact stiffness      0.28070E+16
 Default penetration tolerance factor FTOLN   0.10000    
 The resulting penetration tolerance          0.10000E-03
 Default opening contact stiffness OPSF will be used.
 Default tangent stiffness factor FKT          1.0000    
 Use constant contact stiffness
 Default Max. friction stress TAUMAX          0.10000E+21
 Average contact surface length               0.14250E-01
 Average contact pair depth                   0.10000E-02
 Default pinball region factor PINB           0.25000    
 The resulting pinball region                 0.22500E-02
 Default target edge extension factor TOLS     10.000    
 Initial penetration/gap is excluded.
 Bonded contact (always) is defined.

 *** NOTE ***                            CP =       0.359   TIME= 20:42:06
 Max.  Initial penetration 2.E-03 was detected between contact element   
 134 and target element 144.                                             
 You may move entire target surface by : x= 0, y= 0, z= 0,to reduce      
 initial penetration.                                                    
 *WARNING*: The geometric gap/penetration may be too large.  Increase    
 pinball radius if it is a true geometric gap/penetration.  Decrease     
 pinball if it is a false one.                                           
 *WARNING*: The initial penetration/gap is relatively large.  Bonded/no  
 separation option may cause an accuracy issue.  Switch to MPC           
 algorithm or you may use the CNCHECK,ADJUST/MORPH command to move the   
 contact nodes towards the target surface.                               
 ****************************************
  

 *** NOTE ***                            CP =       0.359   TIME= 20:42:06
 Symmetric Deformable- deformable contact pair identified by real        
 constant set 8 and contact element type 7 has been set up.  The         
 companion pair has real constant set ID 7.  Both pairs should have the  
 same behavior.                                                          
 ANSYS will keep the current pair and deactivate its companion pair,     
 resulting in asymmetric contact.                                        
 Penalty based shell - shell assembly
 3D line-surf contact pair is defined
 Crossed line-to-line contact is also included
 Contacting up to 4 layers
 Contact traction based contact model
 Linear contact is defined
 Contact algorithm: Augmented Lagrange method
 Program provided average target radius       0.10000E-02
 Program provided average contact radius      0.10000E-02
 Contact stiffness factor FKN                  10.000    
 The resulting initial contact stiffness      0.20267E+17
 Default penetration tolerance factor FTOLN   0.10000    
 The resulting penetration tolerance          0.10000E-03
 Default opening contact stiffness OPSF will be used.
 Default tangent stiffness factor FKT          1.0000    
 Use constant contact stiffness
 Default Max. friction stress TAUMAX          0.10000E+21
 Average contact surface length               0.19737E-02
 Average contact pair depth                   0.10000E-02
 Default pinball region factor PINB           0.25000    
 The resulting pinball region                 0.22500E-02
 Default target edge extension factor TOLS     10.000    
 Initial penetration/gap is excluded.
 Bonded contact (always) is defined.

 *** NOTE ***                            CP =       0.359   TIME= 20:42:06
 Max.  Initial penetration 2.E-03 was detected between contact element   
 136 and target element 118.                                             
 You may move entire target surface by : x= 0, y= 0, z= 0,to reduce      
 initial penetration.                                                    
 *WARNING*: The geometric gap/penetration may be too large.  Increase    
 pinball radius if it is a true geometric gap/penetration.  Decrease     
 pinball if it is a false one.                                           
 *WARNING*: The initial penetration/gap is relatively large.  Bonded/no  
 separation option may cause an accuracy issue.  Switch to MPC           
 algorithm or you may use the CNCHECK,ADJUST/MORPH command to move the   
 contact nodes towards the target surface.                               
 ****************************************
  

 *** NOTE ***                            CP =       0.359   TIME= 20:42:06
 Symmetric Deformable- deformable contact pair identified by real        
 constant set 13 and contact element type 13 has been set up.  The       
 companion pair has real constant set ID 14.  Both pairs should have     
 the same behavior.                                                      
 ANSYS will keep the current pair and deactivate its companion pair,     
 resulting in asymmetric contact.                                        
 Penalty based shell - shell assembly
 3D line-surf contact pair is defined
 Crossed line-to-line contact is also included
 Contacting up to 4 layers
 Contact traction based contact model
 Linear contact is defined
 Contact algorithm: Augmented Lagrange method
 Program provided average target radius       0.13700E-02
 Program provided average contact radius      0.10000E-02
 Contact stiffness factor FKN                  10.000    
 The resulting initial contact stiffness      0.20489E+16
 Default penetration tolerance factor FTOLN   0.10000    
 The resulting penetration tolerance          0.10000E-03
 Default opening contact stiffness OPSF will be used.
 Default tangent stiffness factor FKT          1.0000    
 Use constant contact stiffness
 Default Max. friction stress TAUMAX          0.10000E+21
 Average contact surface length               0.14250E-01
[...]

 *** NOTE ***                            CP =       0.453   TIME= 20:42:06
 Contact pair is inactive.                                               
  
 *************************************************
  SUMMARY FOR CONTACT PAIR IDENTIFIED BY REAL CONSTANT SET          15

 *** NOTE ***                            CP =       0.453   TIME= 20:42:06
 Contact pair is inactive.                                               
  
 *************************************************
  SUMMARY FOR CONTACT PAIR IDENTIFIED BY REAL CONSTANT SET          16
 Max.  Penetration of 0 has been detected between contact element 377    
 and target element 349.                                                 
  
 Max.  Geometrical gap of 9.674701754E-04 has been detected between      
 contact element 379 and target element 349.                             
  
 Max.  Geometrical penetration of -2.E-03 has been detected between      
 contact element 379 and target element 349.                             
 *WARNING*: The geometrical penetration may be too large.  Increase      
 pinball if it is a true geometrical penetration.  Decrease pinball if   
 it is a false one.                                                      
 For total 8 contact elements, there are 3 elements are in contact.      
 There are 3 elements are in sticking.                                   
 Contacting area 6.907894733E-06.                                        
 Max.  Pinball distance 2.25E-03.                                        
 One of the contact searching regions contains at least 2 target         
 elements.                                                               
 Max.  Pressure/force 7.01193489E-02.                                    
 Max.  Normal stiffness 4.E+16.                                          
 Min.  Normal stiffness 4.E+16.                                          
 Max.  Tangential stiffness 1.52E+16.                                    
 Min.  Tangential stiffness 1.52E+16.                                    
 *************************************************
  
 *************************************************
  SUMMARY FOR CONTACT PAIR IDENTIFIED BY REAL CONSTANT SET          21

 *** NOTE ***                            CP =       0.453   TIME= 20:42:06
 Contact pair is inactive.                                               
  
 *************************************************
  SUMMARY FOR CONTACT PAIR IDENTIFIED BY REAL CONSTANT SET          22
 Max.  Penetration of 0 has been detected between contact element 564    
 and target element 524.                                                 
  
 Max.  Geometrical penetration of -2.37E-03 has been detected between    
 contact element 564 and target element 525.                             
 *WARNING*: The geometrical penetration may be too large.  Increase      
 pinball if it is a true geometrical penetration.  Decrease pinball if   
 it is a false one.                                                      
 For total 16 contact elements, there are 1 elements are in contact.     
 There are 1 elements are in sticking.                                   
 Contacting area 2.190197361E-05.                                        
 Max.  Pinball distance 2.7125E-03.                                      
 One of the contact searching regions contains at least 5 target         
 elements.                                                               
 Max.  Pressure/force 0.276382835.                                       
 Max.  Normal stiffness 2.919708029E+16.                                 
 Min.  Normal stiffness 2.919708029E+16.                                 
 Max.  Tangential stiffness 2.814814815E+15.                             
 Min.  Tangential stiffness 2.814814815E+15.                             
 *************************************************
  
 *************************************************
  SUMMARY FOR CONTACT PAIR IDENTIFIED BY REAL CONSTANT SET          23
 Max.  Penetration of 0 has been detected between contact element 612    
 and target element 661.                                                 
  
 Max.  Geometrical penetration of -2.46E-03 has been detected between    
 contact element 612 and target element 661.                             
 *WARNING*: The geometrical penetration may be too large.  Increase      
 pinball if it is a true geometrical penetration.  Decrease pinball if   
 it is a false one.                                                      
 For total 16 contact elements, there are 1 elements are in contact.     
 There are 1 elements are in sticking.                                   
 Contacting area 1.425E-05.                                              
 Max.  Pinball distance 2.71E-03.                                        
 One of the contact searching regions contains at least 2 target         
 elements.                                                               
 Max.  Pressure/force 0.346754589.                                       
 Max.  Normal stiffness 2.739726027E+16.                                 
 Min.  Normal stiffness 2.739726027E+16.                                 
 Max.  Tangential stiffness 1.441961067E+15.                             
 Min.  Tangential stiffness 1.441961067E+15.                             
 *************************************************
  
 *************************************************
  SUMMARY FOR CONTACT PAIR IDENTIFIED BY REAL CONSTANT SET          24

 *** NOTE ***                            CP =       0.453   TIME= 20:42:06
 Contact pair is inactive.                                               


                         ***********  PRECISE MASS SUMMARY  ***********

   TOTAL RIGID BODY MASS MATRIX ABOUT ORIGIN
               Translational mass               |   Coupled translational/rotational mass
        0.41212E-01    0.0000        0.0000     |     0.0000        0.0000      -0.25739E-02
         0.0000       0.41212E-01    0.0000     |     0.0000        0.0000       0.30850E-02
         0.0000        0.0000       0.41212E-01 |    0.25739E-02  -0.30850E-02    0.0000    
     ------------------------------------------ | ------------------------------------------
                                                |         Rotational mass (inertia)
                                                |    0.31846E-03  -0.12478E-03  -0.62124E-25
                                                |   -0.12478E-03   0.37160E-03   0.79454E-25
                                                |   -0.62124E-25   0.79454E-25   0.69002E-03

   TOTAL MASS = 0.41212E-01
     The mass principal axes coincide with the global Cartesian axes

   CENTER OF MASS (X,Y,Z)=   0.74858E-01   0.62457E-01    0.0000    

   TOTAL INERTIA ABOUT CENTER OF MASS
        0.15770E-03   0.67895E-04  -0.62124E-25
        0.67895E-04   0.14066E-03   0.79454E-25
       -0.62124E-25   0.79454E-25   0.29833E-03

   PRINCIPAL INERTIAS =   0.21761E-03   0.80753E-04   0.29833E-03
   ORIENTATION VECTORS OF THE INERTIA PRINCIPAL AXES IN GLOBAL CARTESIAN
     ( 0.750, 0.662, 0.000) (-0.662, 0.750, 0.000) ( 0.000, 0.000, 1.000) 


  *** MASS SUMMARY BY ELEMENT TYPE ***

  TYPE      MASS
     1  0.130922E-01
     2  0.389089E-03
     3  0.206217E-02
     4  0.727576E-02
     5  0.788704E-02
     6  0.105055E-01

 Range of element maximum matrix coefficients in global coordinates
 Maximum = 7.05882354E+11 at element 704.                                
 Minimum = 164241458 at element 89.                                      

   *** ELEMENT MATRIX FORMULATION TIMES
     TYPE    NUMBER   ENAME      TOTAL CP  AVE CP

        1        37  BEAM188       0.000   0.000000
        2         8  BEAM188       0.000   0.000000
        3        11  BEAM188       0.016   0.001420
        4        14  BEAM188       0.000   0.000000
        5        16  BEAM188       0.016   0.000977
        6        17  BEAM188       0.000   0.000000
        7        24  CONTA177      0.000   0.000000
        8        24  TARGE170      0.000   0.000000
        9        27  CONTA177      0.000   0.000000
       10        27  TARGE170      0.000   0.000000
       11        30  CONTA177      0.000   0.000000
       12        30  TARGE170      0.000   0.000000
       13        32  CONTA177      0.000   0.000000
       14        32  TARGE170      0.000   0.000000
       15        29  CONTA177      0.000   0.000000
       16        29  TARGE170      0.000   0.000000
       17        32  CONTA177      0.000   0.000000
       18        32  TARGE170      0.000   0.000000
       19        35  CONTA177      0.000   0.000000
       20        35  TARGE170      0.000   0.000000
       21        37  CONTA177      0.062   0.001689
       22        37  TARGE170      0.000   0.000000
       23        33  CONTA177      0.000   0.000000
       24        33  TARGE170      0.000   0.000000
       25        38  CONTA177      0.000   0.000000
       26        38  TARGE170      0.000   0.000000
       27        21  SURF156       0.000   0.000000
 Time at end of element matrix formulation CP = 0.453125.                

 DISTRIBUTED SPARSE MATRIX DIRECT SOLVER.
  Number of equations =        1170,    Maximum wavefront =     42

  Local memory allocated for solver              =      0.638 MB
  Local memory required for in-core solution     =      0.618 MB
  Local memory required for out-of-core solution =      0.618 MB

  Total memory allocated for solver              =      1.185 MB
  Total memory required for in-core solution     =      1.149 MB
  Total memory required for out-of-core solution =      1.149 MB

 *** NOTE ***                            CP =       0.500   TIME= 20:42:06
 The Distributed Sparse Matrix Solver is currently running in the        
 in-core memory mode.  This memory mode uses the most amount of memory   
 in order to avoid using the hard drive as much as possible, which most  
 often results in the fastest solution time.  This mode is recommended   
 if enough physical memory is present to accommodate all of the solver   
 data.                                                                   
 curEqn=    588  totEqn=    588 Job CP sec=      0.500
      Factor Done= 100% Factor Wall sec=      0.003 rate=      59.7 Mflops
 Distributed sparse solver maximum pivot= 7.058823551E+11 at node 80 UZ. 
 Distributed sparse solver minimum pivot= 6.60414704 at node 121 ROTX.   
 Distributed sparse solver minimum pivot in absolute value= 6.60414704   
 at node 121 ROTX.                                                       

   *** ELEMENT RESULT CALCULATION TIMES
     TYPE    NUMBER   ENAME      TOTAL CP  AVE CP

        1        37  BEAM188       0.000   0.000000
        2         8  BEAM188       0.000   0.000000
        3        11  BEAM188       0.000   0.000000
        4        14  BEAM188       0.000   0.000000
        5        16  BEAM188       0.000   0.000000
        6        17  BEAM188       0.000   0.000000
        7        19  CONTA177      0.000   0.000000
        9        19  CONTA177      0.000   0.000000
       11        19  CONTA177      0.000   0.000000
       13        21  CONTA177      0.000   0.000000
       15        28  CONTA177      0.000   0.000000
       17        27  CONTA177      0.000   0.000000
       19        26  CONTA177      0.000   0.000000
       21        27  CONTA177      0.031   0.001157
       23        20  CONTA177      0.000   0.000000
       25        29  CONTA177      0.000   0.000000
       27        21  SURF156       0.000   0.000000

   *** NODAL LOAD CALCULATION TIMES
     TYPE    NUMBER   ENAME      TOTAL CP  AVE CP

        1        37  BEAM188       0.000   0.000000
        2         8  BEAM188       0.000   0.000000
        3        11  BEAM188       0.000   0.000000
        4        14  BEAM188       0.016   0.001116
        5        16  BEAM188       0.000   0.000000
        6        17  BEAM188       0.000   0.000000
        7        19  CONTA177      0.000   0.000000
        9        19  CONTA177      0.000   0.000000
       11        19  CONTA177      0.000   0.000000
       13        21  CONTA177      0.000   0.000000
       15        28  CONTA177      0.000   0.000000
       17        27  CONTA177      0.000   0.000000
       19        26  CONTA177      0.000   0.000000
       21        27  CONTA177      0.000   0.000000
       23        20  CONTA177      0.000   0.000000
       25        29  CONTA177      0.000   0.000000
       27        21  SURF156       0.000   0.000000
 *** LOAD STEP     1   SUBSTEP     1  COMPLETED.    CUM ITER =      1
 *** TIME =   1.00000         TIME INC =   1.00000      NEW TRIANG MATRIX


 *** ANSYS BINARY FILE STATISTICS
  BUFFER SIZE USED= 16384
        0.062 MB WRITTEN ON ELEMENT MATRIX FILE: file0.emat
        4.188 MB WRITTEN ON ELEMENT SAVED DATA FILE: file0.esav
        0.125 MB WRITTEN ON ASSEMBLED MATRIX FILE: file0.full
        0.625 MB WRITTEN ON RESULTS FILE: file0.rst
 *************** Write FE CONNECTORS *********

 WRITE OUT CONSTRAINT EQUATIONS TO FILE= file.ce                                                                                                                                                                                                                                                             
 ****************************************************
 *************** FINISHED SOLVE FOR LS 1 *************

 *GET  _WALLASOL  FROM  ACTI  ITEM=TIME WALL  VALUE=  20.7016667    

 PRINTOUT RESUMED BY /GOP

 FINISH SOLUTION PROCESSING


 ***** ROUTINE COMPLETED *****  CP =         0.578



 *** ANSYS - ENGINEERING ANALYSIS SYSTEM  RELEASE 2019 R1          19.3     ***
 DISTRIBUTED ANSYS Academic Teaching Introductory              

 01055371  VERSION=WINDOWS x64   20:42:06  NOV 19, 2019 CP=      0.578

 glidestruct--Static Structural (A5)                                           



          ***** ANSYS RESULTS INTERPRETATION (POST1) *****

 *** NOTE ***                            CP =       0.578   TIME= 20:42:06
 Reading results into the database (SET command) will update the current 
 displacement and force boundary conditions in the database with the     
 values from the results file for that load set.  Note that any          
 subsequent solutions will use these values unless action is taken to    
 either SAVE the current values or not overwrite them (/EXIT,NOSAVE).    

 Set Encoding of XML File to:ISO-8859-1

 Set Output of XML File to:
     PARM,     ,     ,     ,     ,     ,     ,     ,     ,     ,     ,     ,
         ,     ,     ,     ,     ,     ,     ,

 DATABASE WRITTEN ON FILE  parm.xml                                                                                                                                                                                                                                                            

 EXIT THE ANSYS POST1 DATABASE PROCESSOR


 ***** ROUTINE COMPLETED *****  CP =         0.609



 PRINTOUT RESUMED BY /GOP

 *GET  _WALLDONE  FROM  ACTI  ITEM=TIME WALL  VALUE=  20.7016667    

 PARAMETER _PREPTIME =     0.000000000    

 PARAMETER _SOLVTIME =     0.000000000    

 PARAMETER _POSTTIME =     0.000000000    

 PARAMETER _TOTALTIM =     0.000000000    

 *GET  _DLBRATIO  FROM  ACTI  ITEM=SOLU DLBR  VALUE=  1.00791557    
 --- Number of total nodes = 212
 --- Number of total elements = 758
 --- Element load balance ratio = 1.00791557

 EXIT ANSYS WITHOUT SAVING DATABASE


 NUMBER OF WARNING MESSAGES ENCOUNTERED=          3
 NUMBER OF ERROR   MESSAGES ENCOUNTERED=          0

+--------- D I S T R I B U T E D   A N S Y S   S T A T I S T I C S ------------+

Release: 2019 R1            Build: 19.3       Update: UP20181204   Platform: WINDOWS x64 
Date Run: 11/19/2019   Time: 20:42     Process ID: 264
Operating System: Windows 10  (Build: 18362)

Processor Model: Intel(R) Core(TM) i7-8700K CPU @ 3.70GHz

Compiler: Intel(R) FORTRAN Compiler Version 17.0.4  (Build: 20170411)
          Intel(R) C/C++ Compiler Version 17.0.4  (Build: 20170411)
          Intel(R) Math Kernel Library Version 2017.0.3 Product Build 20170413

Number of machines requested            :    1
Total number of cores available         :   12
Number of physical cores available      :    6
Number of processes requested           :    2
Number of threads per process requested :    1
Total number of cores requested         :    2 (Distributed Memory Parallel)               
MPI Type: INTELMPI
MPI Version: Intel(R) MPI Library 2017 Update 3 for Windows* OS


GPU Acceleration: Not Requested

Job Name: file0
Input File: dummy.dat

  Core                Machine Name   Working Directory
 -----------------------------------------------------
     0             DESKTOP-46GAS10   C:\Users\Brandon\Desktop\_ProjectScratch\ScrD690
     1             DESKTOP-46GAS10   C:\Users\Brandon\Desktop\_ProjectScratch\ScrD690
 
Latency time from master to core     1 =    1.272 microseconds
 
Communication speed from master to core     1 =  9109.00 MB/sec

Total CPU time for main thread                    :        0.5 seconds
Total CPU time summed for all threads             :        0.6 seconds

Elapsed time spent pre-processing model (/PREP7)  :        0.0 seconds
Elapsed time spent solution - preprocessing       :        0.0 seconds
Elapsed time spent computing solution             :        0.1 seconds
Elapsed time spent solution - postprocessing      :        0.0 seconds
Elapsed time spent post-processing model (/POST1) :        0.0 seconds
 
Equation solver used                              :            Sparse (symmetric)

Maximum total memory used                         :       91.0 MB
Maximum total memory allocated                    :     3136.0 MB
Total physical memory available                   :         32 GB

Total amount of I/O written to disk               :        0.0 GB
Total amount of I/O read from disk                :        0.0 GB

+------ E N D   D I S T R I B U T E D   A N S Y S   S T A T I S T I C S -------+


 *---------------------------------------------------------------------------*
 |                                                                           |
 |                       DISTRIBUTED ANSYS RUN COMPLETED                     |
 |                                                                           |
 |---------------------------------------------------------------------------|
 |                                                                           |
 | Ansys 2019 R1               Build 19.3         UP20181204     WINDOWS x64 |
 |                                                                           |
 |---------------------------------------------------------------------------|
 |                                                                           |
 | Database Requested(-db)  1024 MB    Scratch Memory Requested      1024 MB |
 | Maximum Database Used       2 MB    Maximum Scratch Memory Used     45 MB |
 |                                                                           |
 |---------------------------------------------------------------------------|
 |                                                                           |
 |        CP Time      (sec) =          0.609       Time  =  20:42:06        |
 |        Elapsed Time (sec) =          2.000       Date  =  11/19/2019      |
 |                                                                           |
 *---------------------------------------------------------------------------*
